62
image0
N       6.600985    3.509985    1.613974
C       2.784985    1.776992    0.957984
O       0.638006    1.800992   -0.105998
H      -0.125992    1.204995   -0.297995
C       4.344003    3.610984    0.615990
H       4.538016    4.603980    0.220996
C       5.315986    2.912987    1.349978
C       1.463986    1.154995    0.711988
C       8.654995    4.352981    1.602974
N      10.943986    4.777979    2.301963
H      10.652957    4.416981    3.205948
C       3.766968    1.083995    1.687973
H       3.532955    0.101000    2.090966
C       7.755059    3.230986   -0.668989
N       6.811948    3.969983    2.875953
C      13.343980    4.428981    2.888953
H      13.274992    3.399985    2.491960
O       1.108969    0.053000    1.209980
C       3.090003    3.037987    0.416993
H       2.335016    3.583984   -0.142998
C      12.299997    5.324977    2.170965
H      12.509030    5.357976    1.089982
C       7.676015    3.708984    0.797987
C      12.399980    6.767970    2.750955
H      11.648991    7.402967    2.248964
C      10.022012    4.864979    1.291979
C      13.077933    4.416981    4.405929
H      12.091921    3.989982    4.625925
H      13.813922    3.773983    4.906920
C      13.169917    5.849974    4.956920
H      12.977883    5.840974    6.043902
C       5.022968    1.648993    1.886969
H       5.785955    1.114995    2.447960
C      14.849979    6.419972    3.184948
H      15.861990    6.815970    2.997951
C      14.751995    4.991978    2.626957
H      14.966029    5.009978    1.554975
H      15.505985    4.347981    3.099950
C       8.057954    4.479980    2.879953
H       8.453929    4.935978    3.779939
C      13.812995    7.310968    2.477960
H      14.008028    7.332968    1.399977
H      13.898985    8.345963    2.832954
O      10.341046    5.383976    0.187997
C       9.212077    2.852987   -1.025983
H       9.273109    2.519989   -2.062967
H       9.568060    2.042991   -0.391994
H       9.872077    3.703984   -0.895985
C      12.126932    6.745970    4.265931
H      12.181920    7.763966    4.673924
H      11.113921    6.377972    4.469927
C       6.877063    1.984991   -0.945985
H       5.815059    2.214990   -0.979984
H       7.036042    1.203995   -0.203997
H       7.136094    1.570993   -1.918969
C      14.576932    6.406972    4.695924
H      14.656920    7.420967    5.101917
H      15.325920    5.796974    5.216915
C       7.287085    4.381981   -1.590974
H       6.305071    4.750979   -1.297979
H       7.218115    4.038982   -2.619957
H       7.985087    5.213977   -1.558975
