62
Properties=species:S:1:pos:R:3 conformer_16_opt=T pbc="F F F"
H       -3.52265500       2.56908200      -0.96479000
H       -1.08893900       2.35929900      -1.45552700
H       -1.32316500      -1.88073100      -0.73951700
H       -3.74231300      -1.65701300      -0.23427600
H        1.84423100      -1.08261100      -1.56755000
H       -7.30139000       1.40286800       1.90499800
H       -8.42096100      -1.82348700      -0.23990900
H      -11.17220000      -0.83708400       0.12192900
H      -10.42342400      -2.82092400       1.43836700
H      -10.14127500      -5.00880300       0.26699300
H       -8.88874900      -3.88724200      -0.25025100
H       -9.87087300      -5.03186200      -2.22739000
H      -12.82121300      -2.18866400      -2.88563800
H      -13.05543500      -1.28731800      -1.38191000
H      -10.79702800      -0.81893200      -2.34500900
H       -9.11390200      -2.67049900      -2.49383500
H      -10.49730700      -2.99270500      -3.53813100
H      -12.82910300      -2.47776300       0.86726500
H      -12.43823100      -4.20200400       0.91740600
H      -13.80306900      -3.65573700      -1.10818100
H      -12.12562700      -5.50389100      -1.25235300
H      -12.27695700      -4.67726300      -2.80923000
H       -5.10430200       1.26591600      -3.20425300
H       -4.13202600      -0.19851200      -2.96493200
H       -5.29032600      -0.12263200      -4.28855500
H       -7.71009300       1.05177600      -3.10634300
H       -7.55395000      -0.40058100      -4.11289100
H       -8.44826000      -0.47963900      -2.60091900
H       -6.92723400      -2.41494300      -1.77884100
H       -5.16649100      -2.25288100      -1.90181000
H       -6.15449200      -2.34498100      -3.37075200
C       -3.02902400       1.60539300      -0.91446200
C       -1.67166400       1.48421800      -1.19212000
C       -1.05173600       0.22658200      -1.14035000
C       -1.79874600      -0.90943200      -0.79453900
C       -3.15604600      -0.78860200      -0.51043300
C       -3.76455100       0.46464900      -0.58924800
C        0.39650500       0.13860000      -1.44550800
C       -6.26303000       0.14645100      -0.96488000
C       -7.33900400       0.42114900      -0.11178100
C       -6.78264700       1.04270600       1.02699100
C       -8.80051300       0.15488700      -0.22891000
C      -10.54791300      -1.60340200      -0.34491500
C      -10.75482400      -2.93742600       0.40001700
C       -9.96961600      -4.07545300      -0.28310700
C      -10.43539800      -4.22547000      -1.74412100
C      -12.48228300      -2.10009200      -1.84599600
C      -10.97910400      -1.76410400      -1.82108000
C      -10.18465300      -2.90139100      -2.49045800
C      -12.25966700      -3.27062800       0.36614800
C      -12.73208200      -3.42070900      -1.09276800
C      -11.94011700      -4.55476600      -1.77168500
C       -6.25427500      -0.41475800      -2.38557200
C       -5.11668700       0.17244600      -3.24920300
C       -7.57883300      -0.03455000      -3.08213700
C       -6.11748700      -1.95225900      -2.34889400
N       -5.15589000       0.59218100      -0.28020400
N       -5.46121400       1.13947000       0.93609000
N       -9.16553000      -1.13886400      -0.21443200
O        1.10115800       1.09767600      -1.74456000
O        0.89173300      -1.11338200      -1.36409300
O       -9.62698400       1.09588200      -0.24535900
